Circuit: * C:\Users\neelabh\Documents\git\electrical-systems\Kill_switch_board\Mosfet\IRFZ34Mosfet_simulation.asc

V3: Missing value, assumed 0V @ DC
.dc sweep increment has wrong sign -- fixing...

Date: Wed Jun 09 19:52:07 2021
Total elapsed time: 0.119 seconds.

tnom = 27
temp = 27
method = trap
totiter = 306
traniter = 0
tranpoints = 0
accept = 0
rejected = 0
matrix size = 5
fillins = 0
solver = Normal
Matrix Compiler1: 114 bytes object code size  0.1/0.1/[0.1]
Matrix Compiler2: 301 bytes object code size  0.1/0.1/[0.1]

